Canindé/OpenDSS/Rede_CAI_teste_com_trafos_VLN_elem.Txt

NODE-GROUND VOLTAGES BY CIRCUIT ELEMENT

Power Delivery Elements

Bus  (node ref)  Phase    Magnitude, kV (pu)    Angle

ELEMENT = "Vsource.SOURCE"
3326  (  1)    1           50.472 (  0.9934) /_   -0.8
3326  (  2)    2            50.44 (  0.9928) /_ -120.8
3326  (  3)    3           50.447 (  0.9929) /_  119.2
------------
3326  (  0)    1                0 (       0) /_    0.0
3326  (  0)    2                0 (       0) /_    0.0
3326  (  0)    3                0 (       0) /_    0.0

ELEMENT = "Line.12465653_ID6552"
2645  (  4)    1           7.9215 (  0.9942) /_  -30.9
2645  (  5)    2           7.9202 (  0.9941) /_ -150.9
2645  (  6)    3           7.9139 (  0.9933) /_   89.1
------------
3323  (  7)    1           7.9217 (  0.9943) /_  -30.9
3323  (  8)    2           7.9203 (  0.9941) /_ -150.9
3323  (  9)    3            7.914 (  0.9933) /_   89.1

ELEMENT = "Line.12465646_ID5495"
2221  ( 10)    1           7.9218 (  0.9943) /_  -30.9
2221  ( 11)    2           7.9205 (  0.9941) /_ -150.9
2221  ( 12)    3            7.914 (  0.9933) /_   89.0
------------
3323  (  7)    1           7.9217 (  0.9943) /_  -30.9
3323  (  8)    2           7.9203 (  0.9941) /_ -150.9
3323  (  9)    3            7.914 (  0.9933) /_   89.1

ELEMENT = "Line.361598283_ID7254"
3312  ( 13)    1           7.8971 (  0.9912) /_  -31.2
3312  ( 14)    2            7.892 (  0.9905) /_ -151.3
3312  ( 15)    3           7.8904 (  0.9903) /_   88.7
------------
3324  ( 16)    1           7.8971 (  0.9912) /_  -31.2
3324  ( 17)    2            7.892 (  0.9905) /_ -151.3
3324  ( 18)    3           7.8904 (  0.9903) /_   88.7

ELEMENT = "Line.363434473_ID7040"
3324  ( 16)    1           7.8971 (  0.9912) /_  -31.2
3324  ( 17)    2            7.892 (  0.9905) /_ -151.3
3324  ( 18)    3           7.8904 (  0.9903) /_   88.7
------------
927   ( 19)    1           7.8971 (  0.9912) /_  -31.2
927   ( 20)    2            7.892 (  0.9905) /_ -151.3
927   ( 21)    3           7.8903 (  0.9903) /_   88.7

ELEMENT = "Line.363434188_ID6816"
1972  ( 22)    1           7.8971 (  0.9912) /_  -31.3
1972  ( 23)    2            7.892 (  0.9905) /_ -151.3
1972  ( 24)    3           7.8904 (  0.9903) /_   88.7
------------
3324  ( 16)    1           7.8971 (  0.9912) /_  -31.2
3324  ( 17)    2            7.892 (  0.9905) /_ -151.3
3324  ( 18)    3           7.8904 (  0.9903) /_   88.7

ELEMENT = "Line.361598269_ID5892"
13    ( 25)    1           7.8969 (  0.9911) /_  -31.3
13    ( 26)    2           7.8916 (  0.9905) /_ -151.3
13    ( 27)    3           7.8902 (  0.9903) /_   88.7
------------
3324  ( 16)    1           7.8971 (  0.9912) /_  -31.2
3324  ( 17)    2            7.892 (  0.9905) /_ -151.3
3324  ( 18)    3           7.8904 (  0.9903) /_   88.7

ELEMENT = "Line.361598276_ID5020"
3324  ( 16)    1           7.8971 (  0.9912) /_  -31.2
3324  ( 17)    2            7.892 (  0.9905) /_ -151.3
3324  ( 18)    3           7.8904 (  0.9903) /_   88.7
------------
436   ( 28)    1           7.8966 (  0.9911) /_  -31.3
436   ( 29)    2           7.8915 (  0.9905) /_ -151.3
436   ( 30)    3           7.8898 (  0.9903) /_   88.7

ELEMENT = "Line.363434459_ID4198"
3324  ( 16)    1           7.8971 (  0.9912) /_  -31.2
3324  ( 17)    2            7.892 (  0.9905) /_ -151.3
3324  ( 18)    3           7.8904 (  0.9903) /_   88.7
------------
1100  ( 31)    1           7.8967 (  0.9911) /_  -31.3
1100  ( 32)    2           7.8916 (  0.9905) /_ -151.3
1100  ( 33)    3             7.89 (  0.9903) /_   88.7

ELEMENT = "Line.12465652_ID7200"
3247  ( 34)    1           7.9078 (  0.9925) /_  -30.9
3247  ( 35)    2           7.9055 (  0.9922) /_ -151.0
3247  ( 36)    3            7.902 (  0.9918) /_   89.1
------------
3325  ( 37)    1           7.9078 (  0.9925) /_  -30.9
3325  ( 38)    2           7.9055 (  0.9922) /_ -151.0
3325  ( 39)    3            7.902 (  0.9918) /_   89.1

ELEMENT = "Line.12465654_ID6244"
2922  ( 40)    1           7.9073 (  0.9925) /_  -30.9
2922  ( 41)    2            7.905 (  0.9922) /_ -151.0
2922  ( 42)    3           7.9016 (  0.9917) /_   89.1
------------
3325  ( 37)    1           7.9078 (  0.9925) /_  -30.9
3325  ( 38)    2           7.9055 (  0.9922) /_ -151.0
3325  ( 39)    3            7.902 (  0.9918) /_   89.1

ELEMENT = "Line.12465633_ID6553"
2645  (  4)    1           7.9215 (  0.9942) /_  -30.9
2645  (  5)    2           7.9202 (  0.9941) /_ -150.9
2645  (  6)    3           7.9139 (  0.9933) /_   89.1
------------
2648  ( 43)    1           7.9215 (  0.9942) /_  -30.9
2648  ( 44)    2           7.9202 (  0.9941) /_ -150.9
2648  ( 45)    3           7.9139 (  0.9933) /_   89.1

ELEMENT = "Line.12465631_ID5496"
2221  ( 10)    1           7.9218 (  0.9943) /_  -30.9
2221  ( 11)    2           7.9205 (  0.9941) /_ -150.9
2221  ( 12)    3            7.914 (  0.9933) /_   89.0
------------
2223  ( 46)    1            7.922 (  0.9943) /_  -30.9
2223  ( 47)    2           7.9207 (  0.9941) /_ -150.9
2223  ( 48)    3           7.9139 (  0.9933) /_   89.0

ELEMENT = "Line.12465658_ID7041"
927   ( 19)    1           7.8971 (  0.9912) /_  -31.2
927   ( 20)    2            7.892 (  0.9905) /_ -151.3
927   ( 21)    3           7.8903 (  0.9903) /_   88.7
------------
928   ( 49)    1           7.8969 (  0.9912) /_  -31.3
928   ( 50)    2           7.8918 (  0.9905) /_ -151.3
928   ( 51)    3           7.8902 (  0.9903) /_   88.7

ELEMENT = "Line.12465648_ID6817"
1972  ( 22)    1           7.8971 (  0.9912) /_  -31.3
1972  ( 23)    2            7.892 (  0.9905) /_ -151.3
1972  ( 24)    3           7.8904 (  0.9903) /_   88.7
------------
1973  ( 52)    1           7.8972 (  0.9912) /_  -31.3
1973  ( 53)    2            7.892 (  0.9905) /_ -151.3
1973  ( 54)    3           7.8904 (  0.9903) /_   88.7

ELEMENT = "Line.12465656_ID4199"
1100  ( 31)    1           7.8967 (  0.9911) /_  -31.3
1100  ( 32)    2           7.8916 (  0.9905) /_ -151.3
1100  ( 33)    3             7.89 (  0.9903) /_   88.7
------------
1101  ( 55)    1           7.8963 (  0.9911) /_  -31.3
1101  ( 56)    2           7.8912 (  0.9904) /_ -151.3
1101  ( 57)    3           7.8896 (  0.9902) /_   88.7

ELEMENT = "Line.12465627_ID7201"
3247  ( 34)    1           7.9078 (  0.9925) /_  -30.9
3247  ( 35)    2           7.9055 (  0.9922) /_ -151.0
3247  ( 36)    3            7.902 (  0.9918) /_   89.1
------------
3248  ( 58)    1           7.9078 (  0.9925) /_  -30.9
3248  ( 59)    2           7.9055 (  0.9922) /_ -151.0
3248  ( 60)    3            7.902 (  0.9918) /_   89.1

ELEMENT = "Line.12465632_ID6245"
2922  ( 40)    1           7.9073 (  0.9925) /_  -30.9
2922  ( 41)    2            7.905 (  0.9922) /_ -151.0
2922  ( 42)    3           7.9016 (  0.9917) /_   89.1
------------
2924  ( 61)    1           7.9069 (  0.9924) /_  -30.9
2924  ( 62)    2           7.9045 (  0.9921) /_ -151.0
2924  ( 63)    3           7.9011 (  0.9917) /_   89.1

ELEMENT = "Line.12465599_ID6554"
2647  ( 64)    1           7.9212 (  0.9942) /_  -30.9
2647  ( 65)    2           7.9199 (   0.994) /_ -150.9
2647  ( 66)    3           7.9136 (  0.9932) /_   89.1
------------
2648  ( 43)    1           7.9215 (  0.9942) /_  -30.9
2648  ( 44)    2           7.9202 (  0.9941) /_ -150.9
2648  ( 45)    3           7.9139 (  0.9933) /_   89.1

ELEMENT = "Line.12465600_ID5497"
2222  ( 67)    1           7.9225 (  0.9944) /_  -30.9
2222  ( 68)    2           7.9212 (  0.9942) /_ -150.9
2222  ( 69)    3           7.9137 (  0.9933) /_   89.0
------------
2223  ( 46)    1            7.922 (  0.9943) /_  -30.9
2223  ( 47)    2           7.9207 (  0.9941) /_ -150.9
2223  ( 48)    3           7.9139 (  0.9933) /_   89.0

ELEMENT = "Line.363435145_ID7255"
3312  ( 13)    1           7.8971 (  0.9912) /_  -31.2
3312  ( 14)    2            7.892 (  0.9905) /_ -151.3
3312  ( 15)    3           7.8904 (  0.9903) /_   88.7
------------
3311  ( 70)    1           7.8971 (  0.9912) /_  -31.2
3311  ( 71)    2            7.892 (  0.9905) /_ -151.3
3311  ( 72)    3           7.8904 (  0.9903) /_   88.7

ELEMENT = "Line.12465658_ID7042"
928   ( 49)    1           7.8969 (  0.9912) /_  -31.3
928   ( 50)    2           7.8918 (  0.9905) /_ -151.3
928   ( 51)    3           7.8902 (  0.9903) /_   88.7
------------
929   ( 73)    1           7.8969 (  0.9912) /_  -31.3
929   ( 74)    2           7.8918 (  0.9905) /_ -151.3
929   ( 75)    3           7.8902 (  0.9903) /_   88.7

ELEMENT = "Line.12465628_ID6818"
1973  ( 52)    1           7.8972 (  0.9912) /_  -31.3
1973  ( 53)    2            7.892 (  0.9905) /_ -151.3
1973  ( 54)    3           7.8904 (  0.9903) /_   88.7
------------
1975  ( 76)    1           7.8972 (  0.9912) /_  -31.3
1975  ( 77)    2            7.892 (  0.9905) /_ -151.3
1975  ( 78)    3           7.8905 (  0.9903) /_   88.7

ELEMENT = "Line.363435121_ID5893"
13    ( 25)    1           7.8969 (  0.9911) /_  -31.3
13    ( 26)    2           7.8916 (  0.9905) /_ -151.3
13    ( 27)    3           7.8902 (  0.9903) /_   88.7
------------
12    ( 79)    1           7.8961 (  0.9911) /_  -31.3
12    ( 80)    2           7.8905 (  0.9903) /_ -151.3
12    ( 81)    3           7.8894 (  0.9902) /_   88.7

ELEMENT = "Line.363435071_ID5021"
434   ( 82)    1           7.8949 (  0.9909) /_  -31.3
434   ( 83)    2           7.8899 (  0.9903) /_ -151.3
434   ( 84)    3           7.8881 (    0.99) /_   88.7
------------
436   ( 28)    1           7.8966 (  0.9911) /_  -31.3
436   ( 29)    2           7.8915 (  0.9905) /_ -151.3
436   ( 30)    3           7.8898 (  0.9903) /_   88.7

ELEMENT = "Line.12465630_ID4200"
1101  ( 55)    1           7.8963 (  0.9911) /_  -31.3
1101  ( 56)    2           7.8912 (  0.9904) /_ -151.3
1101  ( 57)    3           7.8896 (  0.9902) /_   88.7
------------
1103  ( 85)    1           7.8956 (   0.991) /_  -31.3
1103  ( 86)    2           7.8905 (  0.9903) /_ -151.3
1103  ( 87)    3            7.889 (  0.9902) /_   88.7

ELEMENT = "Line.12465594_ID7202"
3249  ( 88)    1           7.9078 (  0.9925) /_  -30.9
3249  ( 89)    2           7.9055 (  0.9922) /_ -151.0
3249  ( 90)    3            7.902 (  0.9918) /_   89.1
------------
3248  ( 58)    1           7.9078 (  0.9925) /_  -30.9
3248  ( 59)    2           7.9055 (  0.9922) /_ -151.0
3248  ( 60)    3            7.902 (  0.9918) /_   89.1

ELEMENT = "Line.12465603_ID6246"
2923  ( 91)    1           7.9052 (  0.9922) /_  -30.9
2923  ( 92)    2           7.9024 (  0.9918) /_ -151.0
2923  ( 93)    3           7.8992 (  0.9914) /_   89.1
------------
2924  ( 61)    1           7.9069 (  0.9924) /_  -30.9
2924  ( 62)    2           7.9045 (  0.9921) /_ -151.0
2924  ( 63)    3           7.9011 (  0.9917) /_   89.1

ELEMENT = "Line.12465599_ID6555"
2647  ( 64)    1           7.9212 (  0.9942) /_  -30.9
2647  ( 65)    2           7.9199 (   0.994) /_ -150.9
2647  ( 66)    3           7.9136 (  0.9932) /_   89.1
------------
2646  ( 94)    1           7.9211 (  0.9942) /_  -30.9
2646  ( 95)    2           7.9199 (   0.994) /_ -150.9
2646  ( 96)    3           7.9135 (  0.9932) /_   89.1

ELEMENT = "Line.12465600_ID5498"
2222  ( 67)    1           7.9225 (  0.9944) /_  -30.9
2222  ( 68)    2           7.9212 (  0.9942) /_ -150.9
2222  ( 69)    3           7.9137 (  0.9933) /_   89.0
------------
2227  ( 97)    1           7.9226 (  0.9944) /_  -30.9
2227  ( 98)    2           7.9212 (  0.9942) /_ -150.9
2227  ( 99)    3           7.9137 (  0.9933) /_   89.0

ELEMENT = "Line.12465629_ID7043"
929   ( 73)    1           7.8969 (  0.9912) /_  -31.3
929   ( 74)    2           7.8918 (  0.9905) /_ -151.3
929   ( 75)    3           7.8902 (  0.9903) /_   88.7
------------
931   (100)    1           7.8967 (  0.9911) /_  -31.3
931   (101)    2           7.8916 (  0.9905) /_ -151.3
931   (102)    3           7.8899 (  0.9903) /_   88.7

ELEMENT = "Line.12465596_ID6819"
1975  ( 76)    1           7.8972 (  0.9912) /_  -31.3
1975  ( 77)    2            7.892 (  0.9905) /_ -151.3
1975  ( 78)    3           7.8905 (  0.9903) /_   88.7
------------
1974  (103)    1           7.8972 (  0.9912) /_  -31.3
1974  (104)    2           7.8919 (  0.9905) /_ -151.3
1974  (105)    3           7.8905 (  0.9903) /_   88.7

ELEMENT = "Line.12465602_ID4201"
1102  (106)    1           7.8933 (  0.9907) /_  -31.3
1102  (107)    2            7.888 (    0.99) /_ -151.3
1102  (108)    3           7.8866 (  0.9899) /_   88.7
------------
1103  ( 85)    1           7.8956 (   0.991) /_  -31.3
1103  ( 86)    2           7.8905 (  0.9903) /_ -151.3
1103  ( 87)    3            7.889 (  0.9902) /_   88.7

ELEMENT = "Line.12465586_ID7203"
3249  ( 88)    1           7.9078 (  0.9925) /_  -30.9
3249  ( 89)    2           7.9055 (  0.9922) /_ -151.0
3249  ( 90)    3            7.902 (  0.9918) /_   89.1
------------
3269  (109)    1           7.9078 (  0.9925) /_  -30.9
3269  (110)    2           7.9055 (  0.9922) /_ -151.0
3269  (111)    3            7.902 (  0.9918) /_   89.1

ELEMENT = "Line.12465603_ID6247"
2926  (112)    1           7.9049 (  0.9922) /_  -30.9
2926  (113)    2           7.9022 (  0.9918) /_ -151.0
2926  (114)    3           7.8989 (  0.9914) /_   89.1
------------
2923  ( 91)    1           7.9052 (  0.9922) /_  -30.9
2923  ( 92)    2           7.9024 (  0.9918) /_ -151.0
2923  ( 93)    3           7.8992 (  0.9914) /_   89.1

ELEMENT = "Line.12465599_ID6556"
2646  ( 94)    1           7.9211 (  0.9942) /_  -30.9
2646  ( 95)    2           7.9199 (   0.994) /_ -150.9
2646  ( 96)    3           7.9135 (  0.9932) /_   89.1
------------
2649  (115)    1            7.921 (  0.9942) /_  -30.9
2649  (116)    2           7.9198 (   0.994) /_ -150.9
2649  (117)    3           7.9134 (  0.9932) /_   89.1

ELEMENT = "Line.12465589_ID5499"
2227  ( 97)    1           7.9226 (  0.9944) /_  -30.9
2227  ( 98)    2           7.9212 (  0.9942) /_ -150.9
2227  ( 99)    3           7.9137 (  0.9933) /_   89.0
------------
2226  (118)    1           7.9231 (  0.9944) /_  -30.9
2226  (119)    2           7.9219 (  0.9943) /_ -151.0
2226  (120)    3           7.9135 (  0.9932) /_   89.0

ELEMENT = "Line.363435311_ID7256"
3311  ( 70)    1           7.8971 (  0.9912) /_  -31.2
3311  ( 71)    2            7.892 (  0.9905) /_ -151.3
3311  ( 72)    3           7.8904 (  0.9903) /_   88.7
------------
3309  (121)    1           7.8971 (  0.9912) /_  -31.2
3309  (122)    2            7.892 (  0.9905) /_ -151.3
3309  (123)    3           7.8904 (  0.9903) /_   88.7

ELEMENT = "Line.12465598_ID7044"
930   (124)    1           7.8959 (   0.991) /_  -31.3
930   (125)    2           7.8908 (  0.9904) /_ -151.3
930   (126)    3            7.889 (  0.9901) /_   88.7
------------
931   (100)    1           7.8967 (  0.9911) /_  -31.3
931   (101)    2           7.8916 (  0.9905) /_ -151.3
931   (102)    3           7.8899 (  0.9903) /_   88.7

ELEMENT = "Line.12465596_ID6820"
1974  (103)    1           7.8972 (  0.9912) /_  -31.3
1974  (104)    2           7.8919 (  0.9905) /_ -151.3
1974  (105)    3           7.8905 (  0.9903) /_   88.7
------------
1978  (127)    1           7.8972 (  0.9912) /_  -31.3
1978  (128)    2           7.8918 (  0.9905) /_ -151.3
1978  (129)    3           7.8905 (  0.9903) /_   88.7

ELEMENT = "Line.363435153_ID5894"
9     (130)    1           7.8954 (   0.991) /_  -31.3
9     (131)    2           7.8893 (  0.9902) /_ -151.3
9     (132)    3           7.8887 (  0.9901) /_   88.7
------------
12    ( 79)    1           7.8961 (  0.9911) /_  -31.3
12    ( 80)    2           7.8905 (  0.9903) /_ -151.3
12    ( 81)    3           7.8894 (  0.9902) /_   88.7

ELEMENT = "Line.363435303_ID5022"
432   (133)    1           7.8933 (  0.9907) /_  -31.3
432   (134)    2           7.8883 (  0.9901) /_ -151.3
432   (135)    3           7.8864 (  0.9898) /_   88.7
------------
434   ( 82)    1           7.8949 (  0.9909) /_  -31.3
434   ( 83)    2           7.8899 (  0.9903) /_ -151.3
434   ( 84)    3           7.8881 (    0.99) /_   88.7

ELEMENT = "Line.12465602_ID4202"
1102  (106)    1           7.8933 (  0.9907) /_  -31.3
1102  (107)    2            7.888 (    0.99) /_ -151.3
1102  (108)    3           7.8866 (  0.9899) /_   88.7
------------
1106  (136)    1           7.8928 (  0.9906) /_  -31.3
1106  (137)    2           7.8875 (    0.99) /_ -151.4
1106  (138)    3           7.8862 (  0.9898) /_   88.7

ELEMENT = "Line.12465588_ID6248"
2926  (112)    1           7.9049 (  0.9922) /_  -30.9
2926  (113)    2           7.9022 (  0.9918) /_ -151.0
2926  (114)    3           7.8989 (  0.9914) /_   89.1
------------
2925  (139)    1           7.9041 (  0.9921) /_  -30.9
2925  (140)    2           7.9013 (  0.9917) /_ -151.0
2925  (141)    3           7.8981 (  0.9913) /_   89.0

ELEMENT = "Line.12465584_ID6557"
2649  (115)    1            7.921 (  0.9942) /_  -30.9
2649  (116)    2           7.9198 (   0.994) /_ -150.9
2649  (117)    3           7.9134 (  0.9932) /_   89.1
------------
2835  (142)    1            7.921 (  0.9942) /_  -30.9
2835  (143)    2           7.9198 (   0.994) /_ -150.9
2835  (144)    3           7.9134 (  0.9932) /_   89.1

ELEMENT = "Line.12465589_ID5500"
2226  (118)    1           7.9231 (  0.9944) /_  -30.9
2226  (119)    2           7.9219 (  0.9943) /_ -151.0
2226  (120)    3           7.9135 (  0.9932) /_   89.0
------------
2225  (145)    1           7.9238 (  0.9945) /_  -30.9
2225  (146)    2           7.9226 (  0.9944) /_ -151.0
2225  (147)    3           7.9133 (  0.9932) /_   89.0

ELEMENT = "Line.12465598_ID7045"
930   (124)    1           7.8959 (   0.991) /_  -31.3
930   (125)    2           7.8908 (  0.9904) /_ -151.3
930   (126)    3            7.889 (  0.9901) /_   88.7
------------
934   (148)    1           7.8958 (   0.991) /_  -31.3
934   (149)    2           7.8907 (  0.9904) /_ -151.3
934   (150)    3           7.8888 (  0.9901) /_   88.7

ELEMENT = "Line.12465587_ID6821"
1977  (151)    1           7.8973 (  0.9912) /_  -31.3
1977  (152)    2           7.8917 (  0.9905) /_ -151.3
1977  (153)    3           7.8906 (  0.9904) /_   88.7
------------
1978  (127)    1           7.8972 (  0.9912) /_  -31.3
1978  (128)    2           7.8918 (  0.9905) /_ -151.3
1978  (129)    3           7.8905 (  0.9903) /_   88.7

ELEMENT = "Line.12465590_ID4203"
1106  (136)    1           7.8928 (  0.9906) /_  -31.3
1106  (137)    2           7.8875 (    0.99) /_ -151.4
1106  (138)    3           7.8862 (  0.9898) /_   88.7
------------
1105  (154)    1             7.89 (  0.9903) /_  -31.3
1105  (155)    2           7.8847 (  0.9896) /_ -151.4
1105  (156)    3           7.8835 (  0.9895) /_   88.7

ELEMENT = "Line.5675047_ID7204"
3267  (157)    1           7.9078 (  0.9925) /_  -30.9
3267  (158)    2           7.9055 (  0.9922) /_ -151.0
3267  (159)    3            7.902 (  0.9918) /_   89.1
3267  (160)    4       0.00050603 (6.351E-005) /_   62.1
------------
3269  (109)    1           7.9078 (  0.9925) /_  -30.9
3269  (110)    2           7.9055 (  0.9922) /_ -151.0
3269  (111)    3            7.902 (  0.9918) /_   89.1
3269  (161)    4       0.00050603 (6.351E-005) /_   62.1

ELEMENT = "Line.12465638_ID6249"
2925  (139)    1           7.9041 (  0.9921) /_  -30.9
2925  (140)    2           7.9013 (  0.9917) /_ -151.0
2925  (141)    3           7.8981 (  0.9913) /_   89.0
------------
3029  (162)    1           7.9041 (  0.9921) /_  -30.9
3029  (163)    2           7.9012 (  0.9917) /_ -151.0
3029  (164)    3            7.898 (  0.9913) /_   89.0

ELEMENT = "Line.12465589_ID5501"
2224  (165)    1           7.9241 (  0.9946) /_  -31.0
2224  (166)    2           7.9228 (  0.9944) /_ -151.0
2224  (167)    3           7.9132 (  0.9932) /_   89.0
------------
2225  (145)    1           7.9238 (  0.9945) /_  -30.9
2225  (146)    2           7.9226 (  0.9944) /_ -151.0
2225  (147)    3           7.9133 (  0.9932) /_   89.0

ELEMENT = "Line.363438455_ID7257"
3309  (121)    1           7.8971 (  0.9912) /_  -31.2
3309  (122)    2            7.892 (  0.9905) /_ -151.3
3309  (123)    3           7.8904 (  0.9903) /_   88.7
------------
3306  (168)    1           7.8971 (  0.9912) /_  -31.2
3306  (169)    2            7.892 (  0.9905) /_ -151.3
3306  (170)    3           7.8904 (  0.9903) /_   88.7

ELEMENT = "Line.12465597_ID7046"
934   (148)    1           7.8958 (   0.991) /_  -31.3
934   (149)    2           7.8907 (  0.9904) /_ -151.3
934   (150)    3           7.8888 (  0.9901) /_   88.7
------------
933   (171)    1           7.8948 (  0.9909) /_  -31.3
933   (172)    2           7.8897 (  0.9902) /_ -151.3
933   (173)    3           7.8876 (    0.99) /_   88.7

ELEMENT = "Line.12465587_ID6822"
1977  (151)    1           7.8973 (  0.9912) /_  -31.3
1977  (152)    2           7.8917 (  0.9905) /_ -151.3
1977  (153)    3           7.8906 (  0.9904) /_   88.7
------------
1976  (174)    1           7.8974 (  0.9912) /_  -31.3
1976  (175)    2           7.8916 (  0.9905) /_ -151.4
1976  (176)    3           7.8907 (  0.9904) /_   88.7

ELEMENT = "Line.363435319_ID5895"
7     (177)    1           7.8943 (  0.9908) /_  -31.3
7     (178)    2           7.8875 (    0.99) /_ -151.4
7     (179)    3           7.8875 (    0.99) /_   88.7
------------
9     (130)    1           7.8954 (   0.991) /_  -31.3
9     (131)    2           7.8893 (  0.9902) /_ -151.3
9     (132)    3           7.8887 (  0.9901) /_   88.7

ELEMENT = "Line.363438448_ID5023"
432   (133)    1           7.8933 (  0.9907) /_  -31.3
432   (134)    2           7.8883 (  0.9901) /_ -151.3
432   (135)    3           7.8864 (  0.9898) /_   88.7
------------
431   (180)    1           7.8908 (  0.9904) /_  -31.3
431   (181)    2           7.8859 (  0.9898) /_ -151.4
431   (182)    3           7.8838 (  0.9895) /_   88.7

ELEMENT = "Line.12465590_ID4204"
1104  (183)    1           7.8868 (  0.9899) /_  -31.3
1104  (184)    2           7.8814 (  0.9892) /_ -151.4
1104  (185)    3           7.8804 (  0.9891) /_   88.7
------------
1105  (154)    1             7.89 (  0.9903) /_  -31.3
1105  (155)    2           7.8847 (  0.9896) /_ -151.4
1105  (156)    3           7.8835 (  0.9895) /_   88.7

ELEMENT = "Line.5675058_ID7205"
3266  (186)    1           7.9078 (  0.9925) /_  -30.9
3266  (187)    2           7.9055 (  0.9922) /_ -151.0
3266  (188)    3            7.902 (  0.9918) /_   89.1
------------
3267  (157)    1           7.9078 (  0.9925) /_  -30.9
3267  (158)    2           7.9055 (  0.9922) /_ -151.0
3267  (159)    3            7.902 (  0.9918) /_   89.1

ELEMENT = "Line.5675059_ID7206"
3264  (189)    1           7.9078 (  0.9925) /_  -30.9
3264  (190)    2           7.9055 (  0.9922) /_ -151.0
3264  (191)    3            7.902 (  0.9918) /_   89.1
3264  (192)    4       0.00050603 (6.351E-005) /_   62.1
------------
3267  (157)    1           7.9078 (  0.9925) /_  -30.9
3267  (158)    2           7.9055 (  0.9922) /_ -151.0
3267  (159)    3            7.902 (  0.9918) /_   89.1
3267  (160)    4       0.00050603 (6.351E-005) /_   62.1

ELEMENT = "Line.5674994_ID6558"
2833  (193)    1            7.921 (  0.9942) /_  -30.9
2833  (194)    2           7.9198 (   0.994) /_ -150.9
2833  (195)    3           7.9134 (  0.9932) /_   89.1
2833  (196)    4           0.0017 (0.0002134) /_  -32.0
------------
2835  (142)    1            7.921 (  0.9942) /_  -30.9
2835  (143)    2           7.9198 (   0.994) /_ -150.9
2835  (144)    3           7.9134 (  0.9932) /_   89.1
2835  (197)    4        0.0017002 (0.0002134) /_  -32.0

ELEMENT = "Line.12465589_ID5502"
2224  (165)    1           7.9241 (  0.9946) /_  -31.0
2224  (166)    2           7.9228 (  0.9944) /_ -151.0
2224  (167)    3           7.9132 (  0.9932) /_   89.0
------------
2228  (198)    1           7.9244 (  0.9946) /_  -31.0
2228  (199)    2           7.9231 (  0.9944) /_ -151.0
2228  (200)    3           7.9131 (  0.9932) /_   89.0

ELEMENT = "Line.12465597_ID7047"
932   (201)    1           7.8938 (  0.9908) /_  -31.3
932   (202)    2           7.8887 (  0.9901) /_ -151.4
932   (203)    3           7.8863 (  0.9898) /_   88.7
------------
933   (171)    1           7.8948 (  0.9909) /_  -31.3
933   (172)    2           7.8897 (  0.9902) /_ -151.3
933   (173)    3           7.8876 (    0.99) /_   88.7

ELEMENT = "Line.12465587_ID6823"
1980  (204)    1           7.8975 (  0.9912) /_  -31.3
1980  (205)    2           7.8915 (  0.9905) /_ -151.4
1980  (206)    3           7.8907 (  0.9904) /_   88.7
------------
1976  (174)    1           7.8974 (  0.9912) /_  -31.3
1976  (175)    2           7.8916 (  0.9905) /_ -151.4
1976  (176)    3           7.8907 (  0.9904) /_   88.7

ELEMENT = "Line.12465590_ID4205"
1104  (183)    1           7.8868 (  0.9899) /_  -31.3
1104  (184)    2           7.8814 (  0.9892) /_ -151.4
1104  (185)    3           7.8804 (  0.9891) /_   88.7
------------
1108  (207)    1           7.8857 (  0.9897) /_  -31.3
1108  (208)    2           7.8802 (  0.9891) /_ -151.4
1108  (209)    3           7.8793 (  0.9889) /_   88.7

ELEMENT = "Line.5675058_ID7207"
3265  (210)    1           7.9078 (  0.9925) /_  -30.9
3265  (211)    2           7.9055 (  0.9922) /_ -151.0
3265  (212)    3            7.902 (  0.9918) /_   89.1
------------
3266  (186)    1           7.9078 (  0.9925) /_  -30.9
3266  (187)    2           7.9055 (  0.9922) /_ -151.0
3266  (188)    3            7.902 (  0.9918) /_   89.1

ELEMENT = "Line.5675532_ID6250"
3029  (162)    1           7.9041 (  0.9921) /_  -30.9
3029  (163)    2           7.9012 (  0.9917) /_ -151.0
3029  (164)    3            7.898 (  0.9913) /_   89.0
3029  (213)    4       0.00092327 (0.0001159) /_  160.6
------------
3034  (214)    1           7.9041 (  0.9921) /_  -30.9
3034  (215)    2           7.9012 (  0.9917) /_ -151.0
3034  (216)    3            7.898 (  0.9913) /_   89.0
3034  (217)    4       0.00092271 (0.0001158) /_  160.4

ELEMENT = "Line.5675005_ID6559"
2832  (218)    1            7.921 (  0.9942) /_  -30.9
2832  (219)    2           7.9198 (   0.994) /_ -150.9
2832  (220)    3           7.9134 (  0.9932) /_   89.1
------------
2833  (193)    1            7.921 (  0.9942) /_  -30.9
2833  (194)    2           7.9198 (   0.994) /_ -150.9
2833  (195)    3           7.9134 (  0.9932) /_   89.1

ELEMENT = "Line.5675006_ID6560"
2823  (221)    1            7.921 (  0.9942) /_  -30.9
2823  (222)    2           7.9198 (   0.994) /_ -150.9
2823  (223)    3           7.9134 (  0.9932) /_   89.1
2823  (224)    4           0.0017 (0.0002134) /_  -32.0
------------
2833  (193)    1            7.921 (  0.9942) /_  -30.9
2833  (194)    2           7.9198 (   0.994) /_ -150.9
2833  (195)    3           7.9134 (  0.9932) /_   89.1
2833  (196)    4           0.0017 (0.0002134) /_  -32.0

ELEMENT = "Line.12460924_ID5503"
2228  (198)    1           7.9244 (  0.9946) /_  -31.0
2228  (199)    2           7.9231 (  0.9944) /_ -151.0
2228  (200)    3           7.9131 (  0.9932) /_   89.0
------------
2285  (225)    1           7.9244 (  0.9946) /_  -31.0
2285  (226)    2           7.9231 (  0.9944) /_ -151.0
2285  (227)    3           7.9131 (  0.9932) /_   89.0

ELEMENT = "Line.363438468_ID7258"
3304  (228)    1           7.8971 (  0.9912) /_  -31.2
3304  (229)    2            7.892 (  0.9905) /_ -151.3
3304  (230)    3           7.8904 (  0.9903) /_   88.7
------------
3306  (168)    1           7.8971 (  0.9912) /_  -31.2
3306  (169)    2            7.892 (  0.9905) /_ -151.3
3306  (170)    3           7.8904 (  0.9903) /_   88.7

ELEMENT = "Line.12465597_ID7048"
932   (201)    1           7.8938 (  0.9908) /_  -31.3
932   (202)    2           7.8887 (  0.9901) /_ -151.4
932   (203)    3           7.8863 (  0.9898) /_   88.7
------------
936   (231)    1           7.8934 (  0.9907) /_  -31.3
936   (232)    2           7.8883 (  0.9901) /_ -151.4
936   (233)    3           7.8859 (  0.9898) /_   88.7

ELEMENT = "Line.12461017_ID6824"
1979  (234)    1           7.8975 (  0.9912) /_  -31.3
1979  (235)    2           7.8914 (  0.9905) /_ -151.4
1979  (236)    3           7.8908 (  0.9904) /_   88.7
------------
1980  (204)    1           7.8975 (  0.9912) /_  -31.3
1980  (205)    2           7.8915 (  0.9905) /_ -151.4
1980  (206)    3           7.8907 (  0.9904) /_   88.7

ELEMENT = "Line.363439152_ID5896"
5     (237)    1            7.893 (  0.9907) /_  -31.3
5     (238)    2           7.8855 (  0.9897) /_ -151.4
5     (239)    3           7.8862 (  0.9898) /_   88.7
------------
7     (177)    1           7.8943 (  0.9908) /_  -31.3
7     (178)    2           7.8875 (    0.99) /_ -151.4
7     (179)    3           7.8875 (    0.99) /_   88.7

ELEMENT = "Line.363439161_ID5024"
428   (240)    1            7.888 (    0.99) /_  -31.3
428   (241)    2           7.8831 (  0.9894) /_ -151.4
428   (242)    3           7.8808 (  0.9891) /_   88.7
------------
431   (180)    1           7.8908 (  0.9904) /_  -31.3
431   (181)    2           7.8859 (  0.9898) /_ -151.4
431   (182)    3           7.8838 (  0.9895) /_   88.7

ELEMENT = "Line.12461016_ID4206"
1107  (243)    1           7.8833 (  0.9894) /_  -31.4
1107  (244)    2           7.8777 (  0.9887) /_ -151.4
1107  (245)    3           7.8769 (  0.9886) /_   88.6
------------
1108  (207)    1           7.8857 (  0.9897) /_  -31.3
1108  (208)    2           7.8802 (  0.9891) /_ -151.4
1108  (209)    3           7.8793 (  0.9889) /_   88.7

ELEMENT = "Line.5675058_ID7208"
3265  (210)    1           7.9078 (  0.9925) /_  -30.9
3265  (211)    2           7.9055 (  0.9922) /_ -151.0
3265  (212)    3            7.902 (  0.9918) /_   89.1
------------
3277  (246)    1           7.9078 (  0.9925) /_  -30.9
3277  (247)    2           7.9055 (  0.9922) /_ -151.0
3277  (248)    3            7.902 (  0.9918) /_   89.1

ELEMENT = "Line.5675530_ID6251"
3033  (249)    1           7.9041 (  0.9921) /_  -30.9
3033  (250)    2           7.9012 (  0.9917) /_ -151.0
3033  (251)    3            7.898 (  0.9913) /_   89.0
------------
3034  (214)    1           7.9041 (  0.9921) /_  -30.9
3034  (215)    2           7.9012 (  0.9917) /_ -151.0
3034  (216)    3            7.898 (  0.9913) /_   89.0

ELEMENT = "Line.5675531_ID6252"
3034  (214)    1           7.9041 (  0.9921) /_  -30.9
3034  (215)    2           7.9012 (  0.9917) /_ -151.0
3034  (216)    3            7.898 (  0.9913) /_   89.0
------------
3031  (252)    1           7.9038 (   0.992) /_  -30.9
3031  (253)    2           7.9008 (  0.9916) /_ -151.0
3031  (254)    3           7.8977 (  0.9912) /_   89.0

ELEMENT = "Line.5675005_ID6561"
2831  (255)    1           7.9209 (  0.9942) /_  -30.9
2831  (256)    2           7.9197 (   0.994) /_ -150.9
2831  (257)    3           7.9133 (  0.9932) /_   89.1
------------
2832  (218)    1            7.921 (  0.9942) /_  -30.9
2832  (219)    2           7.9198 (   0.994) /_ -150.9
2832  (220)    3           7.9134 (  0.9932) /_   89.1

ELEMENT = "Line.363438468_ID7259"
3303  (258)    1           7.8971 (  0.9912) /_  -31.2
3303  (259)    2            7.892 (  0.9905) /_ -151.3
3303  (260)    3           7.8904 (  0.9903) /_   88.7
------------
3304  (228)    1           7.8971 (  0.9912) /_  -31.2
3304  (229)    2            7.892 (  0.9905) /_ -151.3
3304  (230)    3           7.8904 (  0.9903) /_   88.7

ELEMENT = "Line.12461015_ID7049"
935   (261)    1           7.8926 (  0.9906) /_  -31.3
935   (262)    2           7.8875 (    0.99) /_ -151.4
935   (263)    3           7.8849 (  0.9896) /_   88.7
------------
936   (231)    1           7.8934 (  0.9907) /_  -31.3
936   (232)    2           7.8883 (  0.9901) /_ -151.4
936   (233)    3           7.8859 (  0.9898) /_   88.7

ELEMENT = "Line.12461018_ID6825"
1979  (234)    1           7.8975 (  0.9912) /_  -31.3
1979  (235)    2           7.8914 (  0.9905) /_ -151.4
1979  (236)    3           7.8908 (  0.9904) /_   88.7
------------
1981  (264)    1           7.8976 (  0.9912) /_  -31.3
1981  (265)    2           7.8913 (  0.9904) /_ -151.4
1981  (266)    3           7.8909 (  0.9904) /_   88.7

ELEMENT = "Line.363443284_ID5897"
4     (267)    1           7.8926 (  0.9906) /_  -31.3
4     (268)    2           7.8848 (  0.9896) /_ -151.4
4     (269)    3           7.8858 (  0.9898) /_   88.7
------------
5     (237)    1            7.893 (  0.9907) /_  -31.3
5     (238)    2           7.8855 (  0.9897) /_ -151.4
5     (239)    3           7.8862 (  0.9898) /_   88.7

ELEMENT = "Line.363443292_ID5025"
425   (270)    1            7.887 (  0.9899) /_  -31.3
425   (271)    2           7.8821 (  0.9893) /_ -151.4
425   (272)    3           7.8797 (   0.989) /_   88.7
------------
428   (240)    1            7.888 (    0.99) /_  -31.3
428   (241)    2           7.8831 (  0.9894) /_ -151.4
428   (242)    3           7.8808 (  0.9891) /_   88.7

ELEMENT = "Line.12461020_ID4207"
1107  (243)    1           7.8833 (  0.9894) /_  -31.4
1107  (244)    2           7.8777 (  0.9887) /_ -151.4
1107  (245)    3           7.8769 (  0.9886) /_   88.6
------------
1109  (273)    1           7.8818 (  0.9893) /_  -31.4
1109  (274)    2           7.8762 (  0.9885) /_ -151.4
1109  (275)    3           7.8755 (  0.9885) /_   88.6

ELEMENT = "Line.5675027_ID7209"
3277  (246)    1           7.9078 (  0.9925) /_  -30.9
3277  (247)    2           7.9055 (  0.9922) /_ -151.0
3277  (248)    3            7.902 (  0.9918) /_   89.1
------------
3279  (276)    1           7.9078 (  0.9925) /_  -30.9
3279  (277)    2           7.9055 (  0.9922) /_ -151.0
3279  (278)    3            7.902 (  0.9918) /_   89.1

ELEMENT = "Line.5675530_ID6253"
3032  (279)    1           7.9041 (  0.9921) /_  -30.9
3032  (280)    2           7.9012 (  0.9917) /_ -151.0
3032  (281)    3            7.898 (  0.9913) /_   89.0
------------
3033  (249)    1           7.9041 (  0.9921) /_  -30.9
3033  (250)    2           7.9012 (  0.9917) /_ -151.0
3033  (251)    3            7.898 (  0.9913) /_   89.0

ELEMENT = "Line.5675828_ID6254"
3017  (282)    1           7.9038 (   0.992) /_  -30.9
3017  (283)    2           7.9008 (  0.9916) /_ -151.0
3017  (284)    3           7.8977 (  0.9912) /_   89.0
3017  (285)    4       0.00066136 (8.301E-005) /_   56.8
------------
3031  (252)    1           7.9038 (   0.992) /_  -30.9
3031  (253)    2           7.9008 (  0.9916) /_ -151.0
3031  (254)    3           7.8977 (  0.9912) /_   89.0
3031  (286)    4       0.00066137 (8.301E-005) /_   56.8

ELEMENT = "Line.5675829_ID6255"
3016  (287)    1           7.9038 (   0.992) /_  -30.9
3016  (288)    2           7.9008 (  0.9916) /_ -151.0
3016  (289)    3           7.8977 (  0.9912) /_   89.0
------------
3031  (252)    1           7.9038 (   0.992) /_  -30.9
3031  (253)    2           7.9008 (  0.9916) /_ -151.0
3031  (254)    3           7.8977 (  0.9912) /_   89.0

ELEMENT = "Line.5675005_ID6562"
2830  (290)    1           7.9209 (  0.9942) /_  -30.9
2830  (291)    2           7.9197 (   0.994) /_ -150.9
2830  (292)    3           7.9133 (  0.9932) /_   89.1
------------
2831  (255)    1           7.9209 (  0.9942) /_  -30.9
2831  (256)    2           7.9197 (   0.994) /_ -150.9
2831  (257)    3           7.9133 (  0.9932) /_   89.1

ELEMENT = "Line.5667238_ID5504"
2285  (225)    1           7.9244 (  0.9946) /_  -31.0
2285  (226)    2           7.9231 (  0.9944) /_ -151.0
2285  (227)    3           7.9131 (  0.9932) /_   89.0
2285  (293)    4           7.7001 (  0.9665) /_  -31.5
------------
2292  (294)    1           7.9244 (  0.9946) /_  -31.0
2292  (295)    2           7.9231 (  0.9944) /_ -151.0
2292  (296)    3           7.9131 (  0.9932) /_   89.0
2292  (297)    4           7.7001 (  0.9665) /_  -31.5

ELEMENT = "Line.12461019_ID7050"
935   (261)    1           7.8926 (  0.9906) /_  -31.3
935   (262)    2           7.8875 (    0.99) /_ -151.4
935   (263)    3           7.8849 (  0.9896) /_   88.7
------------
938   (298)    1           7.8922 (  0.9906) /_  -31.3
938   (299)    2           7.8871 (  0.9899) /_ -151.4
938   (300)    3           7.8845 (  0.9896) /_   88.7

ELEMENT = "Line.12460927_ID6826"
1981  (264)    1           7.8976 (  0.9912) /_  -31.3
1981  (265)    2           7.8913 (  0.9904) /_ -151.4
1981  (266)    3           7.8909 (  0.9904) /_   88.7
------------
1998  (301)    1           7.8976 (  0.9912) /_  -31.3
1998  (302)    2           7.8913 (  0.9904) /_ -151.4
1998  (303)    3           7.8909 (  0.9904) /_   88.7

ELEMENT = "Line.12460929_ID4208"
1109  (273)    1           7.8818 (  0.9893) /_  -31.4
1109  (274)    2           7.8762 (  0.9885) /_ -151.4
1109  (275)    3           7.8755 (  0.9885) /_   88.6
------------
1160  (304)    1           7.8818 (  0.9892) /_  -31.4
1160  (305)    2           7.8761 (  0.9885) /_ -151.4
1160  (306)    3           7.8754 (  0.9885) /_   88.6

ELEMENT = "Line.5675026_ID7210"
3278  (307)    1           7.9078 (  0.9925) /_  -30.9
3278  (308)    2           7.9055 (  0.9922) /_ -151.0
3278  (309)    3            7.902 (  0.9918) /_   89.1
------------
3279  (276)    1           7.9078 (  0.9925) /_  -30.9
3279  (277)    2           7.9055 (  0.9922) /_ -151.0
3279  (278)    3            7.902 (  0.9918) /_   89.1

ELEMENT = "Line.363825500_ID7211"
3279  (276)    1           7.9078 (  0.9925) /_  -30.9
3279  (277)    2           7.9055 (  0.9922) /_ -151.0
3279  (278)    3            7.902 (  0.9918) /_   89.1
------------
3257  (310)    1           7.9078 (  0.9925) /_  -30.9
3257  (311)    2           7.9055 (  0.9922) /_ -151.0
3257  (312)    3            7.902 (  0.9918) /_   89.1

ELEMENT = "Line.5675829_ID6256"
3015  (313)    1           7.9034 (   0.992) /_  -30.9
3015  (314)    2           7.9004 (  0.9916) /_ -151.0
3015  (315)    3           7.8973 (  0.9912) /_   89.0
------------
3016  (287)    1           7.9038 (   0.992) /_  -30.9
3016  (288)    2           7.9008 (  0.9916) /_ -151.0
3016  (289)    3           7.8977 (  0.9912) /_   89.0

ELEMENT = "Line.5675005_ID6563"
2829  (316)    1           7.9208 (  0.9941) /_  -30.9
2829  (317)    2           7.9196 (   0.994) /_ -150.9
2829  (318)    3           7.9132 (  0.9932) /_   89.1
------------
2830  (290)    1           7.9209 (  0.9942) /_  -30.9
2830  (291)    2           7.9197 (   0.994) /_ -150.9
2830  (292)    3           7.9133 (  0.9932) /_   89.1

ELEMENT = "Line.5667225_ID5505"
2292  (294)    1           7.9244 (  0.9946) /_  -31.0
2292  (295)    2           7.9231 (  0.9944) /_ -151.0
2292  (296)    3           7.9131 (  0.9932) /_   89.0
2292  (297)    4           7.7001 (  0.9665) /_  -31.5
------------
2291  (319)    1           7.9247 (  0.9946) /_  -31.0
2291  (320)    2           7.9231 (  0.9944) /_ -151.0
2291  (321)    3            7.913 (  0.9932) /_   89.0
2291  (322)    4           7.7003 (  0.9665) /_  -31.5

ELEMENT = "Line.5667226_ID5506"
2286  (323)    1           7.9244 (  0.9946) /_  -31.0
2286  (324)    2           7.9231 (  0.9944) /_ -151.0
2286  (325)    3           7.9131 (  0.9932) /_   89.0
2286  (326)    4           7.7001 (  0.9665) /_  -31.5
------------
2292  (294)    1           7.9244 (  0.9946) /_  -31.0
2292  (295)    2           7.9231 (  0.9944) /_ -151.0
2292  (296)    3           7.9131 (  0.9932) /_   89.0
2292  (297)    4           7.7001 (  0.9665) /_  -31.5

ELEMENT = "Line.12460997_ID7051"
938   (298)    1           7.8922 (  0.9906) /_  -31.3
938   (299)    2           7.8871 (  0.9899) /_ -151.4
938   (300)    3           7.8845 (  0.9896) /_   88.7
------------
1016  (327)    1           7.8922 (  0.9906) /_  -31.3
1016  (328)    2           7.8871 (  0.9899) /_ -151.4
1016  (329)    3           7.8845 (  0.9896) /_   88.7

ELEMENT = "Line.357366308_ID5898"
14    (330)    1           7.8921 (  0.9905) /_  -31.3
14    (331)    2            7.884 (  0.9895) /_ -151.4
14    (332)    3           7.8853 (  0.9897) /_   88.7
------------
4     (267)    1           7.8926 (  0.9906) /_  -31.3
4     (268)    2           7.8848 (  0.9896) /_ -151.4
4     (269)    3           7.8858 (  0.9898) /_   88.7

ELEMENT = "Line.363439174_ID5026"
426   (333)    1           7.8858 (  0.9898) /_  -31.3
426   (334)    2           7.8809 (  0.9891) /_ -151.4
426   (335)    3           7.8784 (  0.9888) /_   88.7
------------
425   (270)    1            7.887 (  0.9899) /_  -31.3
425   (271)    2           7.8821 (  0.9893) /_ -151.4
425   (272)    3           7.8797 (   0.989) /_   88.7

ELEMENT = "Line.5675026_ID7212"
3278  (307)    1           7.9078 (  0.9925) /_  -30.9
3278  (308)    2           7.9055 (  0.9922) /_ -151.0
3278  (309)    3            7.902 (  0.9918) /_   89.1
------------
3283  (336)    1           7.9078 (  0.9925) /_  -30.9
3283  (337)    2           7.9055 (  0.9922) /_ -151.0
3283  (338)    3            7.902 (  0.9918) /_   89.1

ELEMENT = "Line.363825500_ID7213"
3256  (339)    1           7.9078 (  0.9925) /_  -30.9
3256  (340)    2           7.9055 (  0.9922) /_ -151.0
3256  (341)    3            7.902 (  0.9918) /_   89.1
------------
3257  (310)    1           7.9078 (  0.9925) /_  -30.9
3257  (311)    2           7.9055 (  0.9922) /_ -151.0
3257  (312)    3            7.902 (  0.9918) /_   89.1

ELEMENT = "Line.5676155_ID6257"
3015  (313)    1           7.9034 (   0.992) /_  -30.9
3015  (314)    2           7.9004 (  0.9916) /_ -151.0
3015  (315)    3           7.8973 (  0.9912) /_   89.0
------------
3014  (342)    1           7.9031 (  0.9919) /_  -30.9
3014  (343)    2              7.9 (  0.9915) /_ -151.0
3014  (344)    3            7.897 (  0.9912) /_   89.0

ELEMENT = "Line.5676156_ID6258"
3015  (313)    1           7.9034 (   0.992) /_  -30.9
3015  (314)    2           7.9004 (  0.9916) /_ -151.0
3015  (315)    3           7.8973 (  0.9912) /_   89.0
------------
3013  (345)    1           7.9034 (   0.992) /_  -30.9
3013  (346)    2           7.9004 (  0.9916) /_ -151.0
3013  (347)    3           7.8973 (  0.9912) /_   89.0

ELEMENT = "Line.5675005_ID6564"
2828  (348)    1           7.9207 (  0.9941) /_  -30.9
2828  (349)    2           7.9196 (   0.994) /_ -150.9
2828  (350)    3           7.9132 (  0.9932) /_   89.0
------------
2829  (316)    1           7.9208 (  0.9941) /_  -30.9
2829  (317)    2           7.9196 (   0.994) /_ -150.9
2829  (318)    3           7.9132 (  0.9932) /_   89.1

ELEMENT = "Line.5667225_ID5507"
2290  (351)    1           7.9255 (  0.9947) /_  -31.0
2290  (352)    2           7.9231 (  0.9944) /_ -151.0
2290  (353)    3           7.9126 (  0.9931) /_   88.9
2290  (354)    4           7.7009 (  0.9665) /_  -31.5
------------
2291  (319)    1           7.9247 (  0.9946) /_  -31.0
2291  (320)    2           7.9231 (  0.9944) /_ -151.0
2291  (321)    3            7.913 (  0.9932) /_   89.0
2291  (322)    4           7.7003 (  0.9665) /_  -31.5

ELEMENT = "Line.5667354_ID5508"
2283  (355)    1           7.9244 (  0.9946) /_  -31.0
2283  (356)    2           7.9231 (  0.9944) /_ -151.0
2283  (357)    3           7.9131 (  0.9932) /_   89.0
2283  (358)    4           7.7001 (  0.9665) /_  -31.5
------------
2286  (323)    1           7.9244 (  0.9946) /_  -31.0
2286  (324)    2           7.9231 (  0.9944) /_ -151.0
2286  (325)    3           7.9131 (  0.9932) /_   89.0
2286  (326)    4           7.7001 (  0.9665) /_  -31.5

ELEMENT = "Line.5667355_ID5509"
2282  (359)    1           7.9244 (  0.9946) /_  -31.0
2282  (360)    2           7.9231 (  0.9944) /_ -151.0
2282  (361)    3           7.9131 (  0.9932) /_   89.0
2282  (362)    4           7.7001 (  0.9665) /_  -31.5
------------
2286  (323)    1           7.9244 (  0.9946) /_  -31.0
2286  (324)    2           7.9231 (  0.9944) /_ -151.0
2286  (325)    3           7.9131 (  0.9932) /_   89.0
2286  (326)    4           7.7001 (  0.9665) /_  -31.5

ELEMENT = "Line.5667268_ID6827"
1998  (301)    1           7.8976 (  0.9912) /_  -31.3
1998  (302)    2           7.8913 (  0.9904) /_ -151.4
1998  (303)    3           7.8909 (  0.9904) /_   88.7
1998  (363)    4         0.001081 (0.0001357) /_   46.0
------------
2000  (364)    1           7.8976 (  0.9912) /_  -31.3
2000  (365)    2           7.8913 (  0.9904) /_ -151.4
2000  (366)    3           7.8909 (  0.9904) /_   88.7
2000  (367)    4        0.0010833 (0.000136) /_   46.1

ELEMENT = "Line.5667300_ID4209"
1158  (368)    1           7.8817 (  0.9892) /_  -31.4
1158  (369)    2           7.8761 (  0.9885) /_ -151.4
1158  (370)    3           7.8754 (  0.9884) /_   88.6
1158  (371)    4        0.0009508 (0.0001193) /_   68.4
------------
1160  (304)    1           7.8818 (  0.9892) /_  -31.4
1160  (305)    2           7.8761 (  0.9885) /_ -151.4
1160  (306)    3           7.8754 (  0.9885) /_   88.6
1160  (372)    4       0.00095282 (0.0001196) /_   68.3

ELEMENT = "Line.5675012_ID7214"
3282  (373)    1           7.9078 (  0.9925) /_  -30.9
3282  (374)    2           7.9055 (  0.9922) /_ -151.0
3282  (375)    3            7.902 (  0.9918) /_   89.1
------------
3283  (336)    1           7.9078 (  0.9925) /_  -30.9
3283  (337)    2           7.9055 (  0.9922) /_ -151.0
3283  (338)    3            7.902 (  0.9918) /_   89.1

ELEMENT = "Line.5675013_ID7215"
3281  (376)    1           7.9078 (  0.9925) /_  -30.9
3281  (377)    2           7.9055 (  0.9922) /_ -151.0
3281  (378)    3            7.902 (  0.9918) /_   89.1
------------
3283  (336)    1           7.9078 (  0.9925) /_  -30.9
3283  (337)    2           7.9055 (  0.9922) /_ -151.0
3283  (338)    3            7.902 (  0.9918) /_   89.1

ELEMENT = "Line.363313797_ID7216"
3263  (379)    1           7.9078 (  0.9925) /_  -30.9
3263  (380)    2           7.9055 (  0.9922) /_ -151.0
3263  (381)    3            7.902 (  0.9918) /_   89.1
------------
3283  (336)    1           7.9078 (  0.9925) /_  -30.9
3283  (337)    2           7.9055 (  0.9922) /_ -151.0
3283  (338)    3            7.902 (  0.9918) /_   89.1

ELEMENT = "Line.363825500_ID7217"
3255  (382)    1           7.9078 (  0.9925) /_  -30.9
3255  (383)    2           7.9055 (  0.9922) /_ -151.0
3255  (384)    3            7.902 (  0.9918) /_   89.1
------------
3256  (339)    1           7.9078 (  0.9925) /_  -30.9
3256  (340)    2           7.9055 (  0.9922) /_ -151.0
3256  (341)    3            7.902 (  0.9918) /_   89.1

ELEMENT = "Line.5676509_ID6259"
3011  (385)    1           7.9031 (  0.9919) /_  -30.9
3011  (386)    2              7.9 (  0.9915) /_ -151.0
3011  (387)    3            7.897 (  0.9912) /_   89.0
------------
3014  (342)    1           7.9031 (  0.9919) /_  -30.9
3014  (343)    2              7.9 (  0.9915) /_ -151.0
3014  (344)    3            7.897 (  0.9912) /_   89.0

ELEMENT = "Line.5676510_ID6260"
3009  (388)    1            7.903 (  0.9919) /_  -30.9
3009  (389)    2           7.8999 (  0.9915) /_ -151.0
3009  (390)    3           7.8969 (  0.9911) /_   89.0
------------
3014  (342)    1           7.9031 (  0.9919) /_  -30.9
3014  (343)    2              7.9 (  0.9915) /_ -151.0
3014  (344)    3            7.897 (  0.9912) /_   89.0

ELEMENT = "Line.5676212_ID6261"
3012  (391)    1           7.9034 (   0.992) /_  -30.9
3012  (392)    2           7.9004 (  0.9916) /_ -151.0
3012  (393)    3           7.8973 (  0.9912) /_   89.0
3012  (394)    4       0.00070877 (8.896E-005) /_   61.1
------------
3013  (345)    1           7.9034 (   0.992) /_  -30.9
3013  (346)    2           7.9004 (  0.9916) /_ -151.0
3013  (347)    3           7.8973 (  0.9912) /_   89.0
3013  (395)    4       0.00070878 (8.896E-005) /_   61.1

ELEMENT = "Line.5675005_ID6565"
2828  (348)    1           7.9207 (  0.9941) /_  -30.9
2828  (349)    2           7.9196 (   0.994) /_ -150.9
2828  (350)    3           7.9132 (  0.9932) /_   89.0
------------
2827  (396)    1           7.9207 (  0.9941) /_  -30.9
2827  (397)    2           7.9195 (   0.994) /_ -150.9
2827  (398)    3           7.9131 (  0.9932) /_   89.0

ELEMENT = "Line.5667225_ID5510"
2290  (351)    1           7.9255 (  0.9947) /_  -31.0
2290  (352)    2           7.9231 (  0.9944) /_ -151.0
2290  (353)    3           7.9126 (  0.9931) /_   88.9
2290  (354)    4           7.7009 (  0.9665) /_  -31.5
------------
2294  (399)    1           7.9259 (  0.9948) /_  -31.0
2294  (400)    2           7.9231 (  0.9944) /_ -151.0
2294  (401)    3           7.9124 (  0.9931) /_   88.9
2294  (402)    4           7.7011 (  0.9666) /_  -31.5

ELEMENT = "Line.5667664_ID7052"
1016  (327)    1           7.8922 (  0.9906) /_  -31.3
1016  (328)    2           7.8871 (  0.9899) /_ -151.4
1016  (329)    3           7.8845 (  0.9896) /_   88.7
1016  (403)    4       0.00030424 (3.819E-005) /_  142.3
------------
1014  (404)    1           7.8922 (  0.9906) /_  -31.3
1014  (405)    2           7.8871 (  0.9899) /_ -151.4
1014  (406)    3           7.8845 (  0.9896) /_   88.7
1014  (407)    4        0.0003018 (3.788E-005) /_  142.3

ELEMENT = "Line.5667260_ID6828"
2000  (364)    1           7.8976 (  0.9912) /_  -31.3
2000  (365)    2           7.8913 (  0.9904) /_ -151.4
2000  (366)    3           7.8909 (  0.9904) /_   88.7
------------
1999  (408)    1           7.8976 (  0.9912) /_  -31.3
1999  (409)    2           7.8913 (  0.9904) /_ -151.4
1999  (410)    3           7.8909 (  0.9904) /_   88.7

ELEMENT = "Line.5667261_ID6829"
2000  (364)    1           7.8976 (  0.9912) /_  -31.3
2000  (365)    2           7.8913 (  0.9904) /_ -151.4
2000  (366)    3           7.8909 (  0.9904) /_   88.7
------------
2003  (411)    1           7.8976 (  0.9912) /_  -31.3
2003  (412)    2           7.8913 (  0.9904) /_ -151.4
2003  (413)    3           7.8909 (  0.9904) /_   88.7

ELEMENT = "Line.363039876_ID5899"
40    (414)    1           7.8921 (  0.9905) /_  -31.3
40    (415)    2            7.884 (  0.9895) /_ -151.4
40    (416)    3           7.8853 (  0.9897) /_   88.7
------------
14    (330)    1           7.8921 (  0.9905) /_  -31.3
14    (331)    2            7.884 (  0.9895) /_ -151.4
14    (332)    3           7.8853 (  0.9897) /_   88.7

ELEMENT = "Line.363663319_ID5900"
30    (417)    1           7.8921 (  0.9905) /_  -31.3
30    (418)    2            7.884 (  0.9895) /_ -151.4
30    (419)    3           7.8853 (  0.9897) /_   88.7
------------
14    (330)    1           7.8921 (  0.9905) /_  -31.3
14    (331)    2            7.884 (  0.9895) /_ -151.4
14    (332)    3           7.8853 (  0.9897) /_   88.7

ELEMENT = "Line.359531326_ID5027"
426   (333)    1           7.8858 (  0.9898) /_  -31.3
426   (334)    2           7.8809 (  0.9891) /_ -151.4
426   (335)    3           7.8784 (  0.9888) /_   88.7
------------
572   (420)    1           7.8854 (  0.9897) /_  -31.3
572   (421)    2           7.8805 (  0.9891) /_ -151.4
572   (422)    3            7.878 (  0.9888) /_   88.7

ELEMENT = "Line.363663835_ID5028"
540   (423)    1           7.8858 (  0.9898) /_  -31.3
540   (424)    2           7.8809 (  0.9891) /_ -151.4
540   (425)    3           7.8784 (  0.9888) /_   88.7
------------
426   (333)    1           7.8858 (  0.9898) /_  -31.3
426   (334)    2           7.8809 (  0.9891) /_ -151.4
426   (335)    3           7.8784 (  0.9888) /_   88.7

ELEMENT = "Line.5667301_ID4210"
1157  (426)    1           7.8817 (  0.9892) /_  -31.4
1157  (427)    2           7.8761 (  0.9885) /_ -151.4
1157  (428)    3           7.8754 (  0.9884) /_   88.6
1157  (429)    4        0.0009508 (0.0001193) /_   68.4
------------
1158  (368)    1           7.8817 (  0.9892) /_  -31.4
1158  (369)    2           7.8761 (  0.9885) /_ -151.4
1158  (370)    3           7.8754 (  0.9884) /_   88.6
1158  (371)    4        0.0009508 (0.0001193) /_   68.4

ELEMENT = "Line.5667302_ID4211"
1162  (430)    1           7.8816 (  0.9892) /_  -31.4
1162  (431)    2           7.8759 (  0.9885) /_ -151.4
1162  (432)    3           7.8753 (  0.9884) /_   88.6
------------
1158  (368)    1           7.8817 (  0.9892) /_  -31.4
1158  (369)    2           7.8761 (  0.9885) /_ -151.4
1158  (370)    3           7.8754 (  0.9884) /_   88.6

ELEMENT = "Line.5675013_ID7218"
3280  (433)    1           7.9078 (  0.9925) /_  -30.9
3280  (434)    2           7.9055 (  0.9922) /_ -151.0
3280  (435)    3            7.902 (  0.9918) /_   89.1
------------
3281  (376)    1           7.9078 (  0.9925) /_  -30.9
3281  (377)    2           7.9055 (  0.9922) /_ -151.0
3281  (378)    3            7.902 (  0.9918) /_   89.1

ELEMENT = "Line.363313797_ID7219"
3262  (436)    1           7.9078 (  0.9925) /_  -30.9
3262  (437)    2           7.9055 (  0.9922) /_ -151.0
3262  (438)    3            7.902 (  0.9918) /_   89.1
------------
3263  (379)    1           7.9078 (  0.9925) /_  -30.9
3263  (380)    2           7.9055 (  0.9922) /_ -151.0
3263  (381)    3            7.902 (  0.9918) /_   89.1

ELEMENT = "Line.5676509_ID6262"
3010  (439)    1           7.9031 (  0.9919) /_  -30.9
3010  (440)    2              7.9 (  0.9915) /_ -151.0
3010  (441)    3            7.897 (  0.9912) /_   89.0
------------
3011  (385)    1           7.9031 (  0.9919) /_  -30.9
3011  (386)    2              7.9 (  0.9915) /_ -151.0
3011  (387)    3            7.897 (  0.9912) /_   89.0

ELEMENT = "Line.5676510_ID6263"
3009  (388)    1            7.903 (  0.9919) /_  -30.9
3009  (389)    2           7.8999 (  0.9915) /_ -151.0
3009  (390)    3           7.8969 (  0.9911) /_   89.0
------------
3008  (442)    1           7.9028 (  0.9919) /_  -30.9
3008  (443)    2           7.8996 (  0.9915) /_ -151.0
3008  (444)    3           7.8966 (  0.9911) /_   89.0

ELEMENT = "Line.5675005_ID6566"
2826  (445)    1           7.9207 (  0.9941) /_  -30.9
2826  (446)    2           7.9195 (   0.994) /_ -150.9
2826  (447)    3           7.9131 (  0.9932) /_   89.0
------------
2827  (396)    1           7.9207 (  0.9941) /_  -30.9
2827  (397)    2           7.9195 (   0.994) /_ -150.9
2827  (398)    3           7.9131 (  0.9932) /_   89.0

ELEMENT = "Line.5666143_ID5511"
2293  (448)    1           7.9259 (  0.9948) /_  -31.0
2293  (449)    2           7.9231 (  0.9944) /_ -151.0
2293  (450)    3           7.9124 (  0.9931) /_   88.9
2293  (451)    4           7.7011 (  0.9666) /_  -31.5
------------
2294  (399)    1           7.9259 (  0.9948) /_  -31.0
2294  (400)    2           7.9231 (  0.9944) /_ -151.0
2294  (401)    3           7.9124 (  0.9931) /_   88.9
2294  (402)    4           7.7011 (  0.9666) /_  -31.5

ELEMENT = "Line.5667225_ID5512"
2289  (452)    1           7.9264 (  0.9949) /_  -31.0
2289  (453)    2            7.923 (  0.9944) /_ -151.0
2289  (454)    3           7.9122 (  0.9931) /_   88.9
2289  (455)    4           7.7015 (  0.9666) /_  -31.5
------------
2294  (399)    1           7.9259 (  0.9948) /_  -31.0
2294  (400)    2           7.9231 (  0.9944) /_ -151.0
2294  (401)    3           7.9124 (  0.9931) /_   88.9
2294  (402)    4           7.7011 (  0.9666) /_  -31.5

ELEMENT = "Line.5667680_ID7053"
1013  (456)    1            7.892 (  0.9905) /_  -31.3
1013  (457)    2           7.8868 (  0.9899) /_ -151.4
1013  (458)    3           7.8842 (  0.9896) /_   88.7
1013  (459)    4       0.00025031 (3.142E-005) /_  142.3
------------
1014  (404)    1           7.8922 (  0.9906) /_  -31.3
1014  (405)    2           7.8871 (  0.9899) /_ -151.4
1014  (406)    3           7.8845 (  0.9896) /_   88.7
1014  (407)    4        0.0003018 (3.788E-005) /_  142.3

ELEMENT = "Line.5667681_ID7054"
1010  (460)    1           7.8922 (  0.9906) /_  -31.3
1010  (461)    2           7.8871 (  0.9899) /_ -151.4
1010  (462)    3           7.8845 (  0.9896) /_   88.7
1010  (463)    4        0.0003018 (3.788E-005) /_  142.3
------------
1014  (404)    1           7.8922 (  0.9906) /_  -31.3
1014  (405)    2           7.8871 (  0.9899) /_ -151.4
1014  (406)    3           7.8845 (  0.9896) /_   88.7
1014  (407)    4        0.0003018 (3.788E-005) /_  142.3

ELEMENT = "Line.5667051_ID6830"
2003  (411)    1           7.8976 (  0.9912) /_  -31.3
2003  (412)    2           7.8913 (  0.9904) /_ -151.4
2003  (413)    3           7.8909 (  0.9904) /_   88.7
------------
2005  (464)    1           7.8976 (  0.9912) /_  -31.3
2005  (465)    2           7.8913 (  0.9904) /_ -151.4
2005  (466)    3           7.8909 (  0.9904) /_   88.7

ELEMENT = "Line.363039876_ID5901"
39    (467)    1            7.892 (  0.9905) /_  -31.3
39    (468)    2           7.8839 (  0.9895) /_ -151.4
39    (469)    3           7.8852 (  0.9897) /_   88.7
------------
40    (414)    1           7.8921 (  0.9905) /_  -31.3
40    (415)    2            7.884 (  0.9895) /_ -151.4
40    (416)    3           7.8853 (  0.9897) /_   88.7

ELEMENT = "Line.363663319_ID5902"
30    (417)    1           7.8921 (  0.9905) /_  -31.3
30    (418)    2            7.884 (  0.9895) /_ -151.4
30    (419)    3           7.8853 (  0.9897) /_   88.7
------------
31    (470)    1           7.8921 (  0.9905) /_  -31.3
31    (471)    2            7.884 (  0.9895) /_ -151.4
31    (472)    3           7.8853 (  0.9897) /_   88.7

ELEMENT = "Line.359530394_ID5029"
580   (473)    1            7.885 (  0.9896) /_  -31.3
580   (474)    2           7.8801 (   0.989) /_ -151.4
580   (475)    3           7.8775 (  0.9887) /_   88.7
------------
572   (420)    1           7.8854 (  0.9897) /_  -31.3
572   (421)    2           7.8805 (  0.9891) /_ -151.4
572   (422)    3            7.878 (  0.9888) /_   88.7

ELEMENT = "Line.363663835_ID5030"
539   (476)    1           7.8858 (  0.9898) /_  -31.3
539   (477)    2           7.8809 (  0.9891) /_ -151.4
539   (478)    3           7.8784 (  0.9888) /_   88.7
------------
540   (423)    1           7.8858 (  0.9898) /_  -31.3
540   (424)    2           7.8809 (  0.9891) /_ -151.4
540   (425)    3           7.8784 (  0.9888) /_   88.7

ELEMENT = "Line.5667301_ID4212"
1156  (479)    1           7.8817 (  0.9892) /_  -31.4
1156  (480)    2           7.8761 (  0.9885) /_ -151.4
1156  (481)    3           7.8754 (  0.9884) /_   88.6
1156  (482)    4        0.0009508 (0.0001193) /_   68.4
------------
1157  (426)    1           7.8817 (  0.9892) /_  -31.4
1157  (427)    2           7.8761 (  0.9885) /_ -151.4
1157  (428)    3           7.8754 (  0.9884) /_   88.6
1157  (429)    4        0.0009508 (0.0001193) /_   68.4

ELEMENT = "Line.5667203_ID4213"
1161  (483)    1           7.8816 (  0.9892) /_  -31.4
1161  (484)    2           7.8759 (  0.9885) /_ -151.4
1161  (485)    3           7.8753 (  0.9884) /_   88.6
1161  (486)    4       0.00093854 (0.0001178) /_   68.7
------------
1162  (430)    1           7.8816 (  0.9892) /_  -31.4
1162  (431)    2           7.8759 (  0.9885) /_ -151.4
1162  (432)    3           7.8753 (  0.9884) /_   88.6
1162  (487)    4       0.00093854 (0.0001178) /_   68.7

ELEMENT = "Line.5667302_ID4214"
1155  (488)    1           7.8807 (  0.9891) /_  -31.4
1155  (489)    2           7.8751 (  0.9884) /_ -151.4
1155  (490)    3           7.8744 (  0.9883) /_   88.6
------------
1162  (430)    1           7.8816 (  0.9892) /_  -31.4
1162  (431)    2           7.8759 (  0.9885) /_ -151.4
1162  (432)    3           7.8753 (  0.9884) /_   88.6

ELEMENT = "Line.363826075_ID7220"
3255  (382)    1           7.9078 (  0.9925) /_  -30.9
3255  (383)    2           7.9055 (  0.9922) /_ -151.0
3255  (384)    3            7.902 (  0.9918) /_   89.1
------------
3253  (491)    1           7.9078 (  0.9925) /_  -30.9
3253  (492)    2           7.9055 (  0.9922) /_ -151.0
3253  (493)    3            7.902 (  0.9918) /_   89.1

ELEMENT = "Line.5681229_ID6264"
2999  (494)    1           7.9031 (  0.9919) /_  -30.9
2999  (495)    2              7.9 (  0.9915) /_ -151.0
2999  (496)    3            7.897 (  0.9912) /_   89.0
------------
3010  (439)    1           7.9031 (  0.9919) /_  -30.9
3010  (440)    2              7.9 (  0.9915) /_ -151.0
3010  (441)    3            7.897 (  0.9912) /_   89.0

ELEMENT = "Line.5675005_ID6567"
2825  (497)    1           7.9206 (  0.9941) /_  -30.9
2825  (498)    2           7.9195 (   0.994) /_ -150.9
2825  (499)    3           7.9131 (  0.9932) /_   89.0
------------
2826  (445)    1           7.9207 (  0.9941) /_  -30.9
...